---------TurbSim v2.00.* Profile Input File------------------------
Made up profiles
-------- User-Defined Profiles (Used only with USR wind profile or USRVKM spectral model) -------------------
17               NumUSRz        - Number of Heights
1               StdScale1      - u-component scaling factor for the input standard deviation (USRVKM only)
1               StdScale2      - v-component scaling factor for the input standard deviation (USRVKM only)
1               StdScale3      - w-component scaling factor for the input standard deviation (USRVKM only)
...................................................................................
Height    Wind Speed       Wind --Direction--
 (m)        (m/s)       (deg, cntr-clockwise )
-----------------------------------------------------------------------------------
0.000           0.000            -17.857
10.000           1.718            -15.873
20.000           2.792            -13.889
30.000           3.708            -11.905
40.000           4.535            -9.921
50.000           5.302            -7.937
60.000           6.023            -5.952
70.000           6.709            -3.968
80.000           7.367            -1.984
90.000           8.000            0.000
100.000           8.612            1.984
110.000           9.207            3.968
120.000           9.785            5.952
130.000           10.349            7.937
140.000           10.900            9.921
150.000           11.439            11.905
160.000           11.968            13.889
170.000           12.486            15.873
180.000           12.996            17.857
