---
---
---
False
"FATAL"
22.00000
0.00400
  1
  0
99999.00000
1000000.00000
---
  1
  1
  1
  1
  0
  0
  0
  0
---
"Test01_ElastoDyn.dat"
"unused"
"unused"
"unused"
"Test01_InflowWind.dat"
"Test01_AD.ipt"
"Test01_ServoDyn.dat"
"unused"
"unused"
"unused"
"unused"
---
True
2.00000
99999.00000
0.02000
10.00000
  1
True
"ES10.3E2"
---
False
2
30, 60
1
1
False
False
---
  0
  2
False
15.00000
